  25
 
 C         -3.4882502901       -0.9911589714        0.0062272081
 C         -2.0868145199       -0.4753391256        0.0041604691
 C         -1.8044549453        0.8610455627        0.0183072312
 C         -2.8303992495        1.9342766621        0.0498656575
 C         -4.1685982106        1.3023765757       -0.3573307537
 N         -4.3782787677        0.0865362982        0.4116267563
 C         -0.8452959018       -1.1711232432       -0.0199927016
 C          0.1617857244       -0.1643428074       -0.0137234188
 N         -0.4470385456        1.0521784510        0.0084359822
 C         -0.4755630310       -2.5153706826       -0.0441153163
 C          0.8631626473       -2.8385894788       -0.0591300772
 C          1.8540164507       -1.8534602390       -0.0527069547
 C          1.4998996703       -0.5231226362       -0.0307836968
 Br         2.8504174558        0.8494344892       -0.0230546468
 H         -3.5944782393       -1.8130719006        0.7204797410
 H         -3.7304311041       -1.3865286458       -1.0008731399
 H         -2.5732191902        2.7517606552       -0.6258940667
 H         -2.9127187713        2.3363719819        1.0627259257
 H         -4.1559272549        1.1077936045       -1.4448097827
 H         -4.9853617240        1.9930166917       -0.1414088182
 H         -5.3413794539       -0.2182077099        0.3296084691
 H          0.0266507807        1.9408149208        0.0264094464
 H         -1.2302262344       -3.2863583621       -0.0501204317
 H          1.1697525009       -3.8730424587       -0.0761548414
 H          2.8952941639       -2.1353180977       -0.0645537959
          25
        -39.12648757
 C         -3.5019869602       -0.9789966869        0.0233987794
 C         -2.0879168993       -0.4807041844        0.0100769518
 C         -1.7972280925        0.8549625915       -0.0045364993
 C         -2.8110393704        1.9429569411       -0.0204681843
 C         -4.1730988536        1.3158959295        0.3472209743
 N         -4.4456621812        0.0694046606       -0.3445865464
 C         -0.8493249173       -1.1828765256        0.0202016328
 C          0.1638308448       -0.1828420579        0.0036144633
 N         -0.4373246823        1.0375813279       -0.0133557962
 C         -0.4893149193       -2.5297681334        0.0386401464
 C          0.8473080945       -2.8613008437        0.0397596077
 C          1.8445863532       -1.8825536932        0.0241139401
 C          1.4999034083       -0.5498452424        0.0060902881
 Br         2.8597822504        0.8150129385       -0.0149468252
 H         -3.7639269896       -1.3262223062        1.0315370591
 H         -3.6277196322       -1.8215816174       -0.6605488068
 H         -2.8627415157        2.3915061094       -1.0181926923
 H         -2.5531719634        2.7324705730        0.6878584342
 H         -4.9803277182        2.0148661037        0.1188275368
 H         -4.1942374090        1.1025402461        1.4192703263
 H         -4.3937146386        0.2295876571       -1.3460554338
 H          0.0421925592        1.9231955725       -0.0229412314
 H         -1.2490885526       -3.2955256641        0.0526991131
 H          1.1474028541       -3.8977735376        0.0536354577
 H          2.8841513432       -2.1715925829        0.0263923219
