25
../../ligands/target2.pdb
C         -3.86300        3.06400        0.01000
C         -2.50600        2.48700       -0.00100
C         -1.34600        3.26200       -0.00800
C         -1.35500        4.74000       -0.00300
C         -2.78600        5.31400       -0.22500
N         -3.84000        4.49200        0.42400
C         -2.09500        1.15900       -0.00900
C         -0.69800        1.16800       -0.00500
N         -0.27400        2.44400       -0.00300
C         -2.81600       -0.04800       -0.00600
C         -2.09500       -1.26200       -0.00300
C         -0.68200       -1.25400       -0.00100
C          0.03200       -0.03500       -0.00100
Br         1.89100       -0.02900        0.00100
H         -4.48500        2.52300        0.72500
H         -4.30700        2.96900       -0.98300
H         -0.69700        5.10700       -0.79400
H         -0.96000        5.08300        0.95600
H         -2.99600        5.38100       -1.29600
H         -2.84100        6.32500        0.18700
H         -4.74100        4.89300        0.15400
H          0.65300        2.73000        0.00100
H         -3.83800       -0.04900       -0.00400
H         -2.60100       -2.15000        0.00000
H         -0.17700       -2.14300        0.00100
